@<TRIPOS>MOLECULE
ligand.pdb
   59    63     1     0     0
SMALL
bcc


@<TRIPOS>ATOM
      1 O            0.2190    -2.0280     0.4740 os         0 UNK      -0.395600
      2 O1           4.1920     0.6820     1.5990 os         0 UNK      -0.322900
      3 O2          -1.0260    -1.4810    -2.8210 oh         0 UNK      -0.616100
      4 O3           0.8720    -2.5240    -2.1550 o          0 UNK      -0.530000
      5 N           -3.9360     0.1130    -0.3630 nb         0 UNK      -0.671000
      6 N1           0.6730     1.1720    -1.6840 nb         0 UNK      -0.659000
      7 C           -1.2300     0.3630     0.2340 cp         0 UNK       0.084000
      8 C1          -1.7190    -0.8380    -0.2600 ca         0 UNK      -0.203600
      9 C2           0.1880     0.4580     0.5350 cp         0 UNK      -0.130300
     10 C3          -0.8340    -2.0190    -0.4870 c3         0 UNK       0.167400
     11 C4           2.4520     0.9430    -0.0840 ca         0 UNK      -0.194300
     12 C5           0.1860    -3.2040     1.2680 c3         0 UNK       0.147800
     13 C6           1.0920     0.8690    -0.4410 ca         0 UNK       0.447600
     14 C7           3.3840     1.3240    -1.0570 ca         0 UNK      -0.017300
     15 C8          -2.0950     1.4480     0.4330 ca         0 UNK      -0.141300
     16 C9           2.8720     0.6210     1.2170 ca         0 UNK       0.147100
     17 C10          4.8380     1.3400    -0.6790 c3         0 UNK      -0.077100
     18 C11         -3.0690    -0.9100    -0.5400 ca         0 UNK       0.450600
     19 C12          0.6060     0.1150     1.8250 ca         0 UNK      -0.043000
     20 C13         -3.4590     1.2770     0.1170 ca         0 UNK       0.409600
     21 C14          4.9490     1.6170     0.8170 c3         0 UNK       0.130400
     22 C15          1.9520     0.1890     2.1680 ca         0 UNK      -0.169000
     23 C16          0.3410    -4.4160     0.3500 c3         0 UNK      -0.112767
     24 C17          1.3490    -3.1250     2.2550 c3         0 UNK      -0.112767
     25 C18         -1.1480    -3.2520     2.0120 c3         0 UNK      -0.112767
     26 C19          2.9570     1.6170    -2.3460 ca         0 UNK      -0.255300
     27 C20         -1.6310     2.6770     0.9320 ca         0 UNK      -0.095000
     28 C21         -0.2270    -2.0560    -1.8850 c          0 UNK       0.618100
     29 C22         -3.6640    -2.1710    -1.0760 c3         0 UNK      -0.164400
     30 C23          1.6020     1.5340    -2.6010 ca         0 UNK       0.427200
     31 C24         -4.3170     2.3550     0.3140 ca         0 UNK      -0.173300
     32 C25         -2.5110     3.7380     1.1190 ca         0 UNK      -0.137000
     33 C26         -3.8560     3.5770     0.8100 ca         0 UNK      -0.119000
     34 H           -1.4410    -2.9200    -0.4550 h1         0 UNK       0.081700
     35 H1           5.2670     0.3590    -0.9160 hc         0 UNK       0.071200
     36 H2           5.3820     2.1080    -1.2400 hc         0 UNK       0.071200
     37 H3          -0.1110    -0.1900     2.5840 ha         0 UNK       0.148000
     38 H4           5.9950     1.5340     1.1300 h1         0 UNK       0.060700
     39 H5           4.6180     2.6350     1.0640 h1         0 UNK       0.060700
     40 H6           2.2720    -0.0680     3.1730 ha         0 UNK       0.151000
     41 H7          -0.5090    -4.6250    -0.3040 hc         0 UNK       0.048033
     42 H8           1.2250    -4.3110    -0.2890 hc         0 UNK       0.048033
     43 H9           0.4820    -5.3250     0.9480 hc         0 UNK       0.048033
     44 H10          1.1750    -2.3660     3.0210 hc         0 UNK       0.048033
     45 H11          2.2850    -2.8740     1.7440 hc         0 UNK       0.048033
     46 H12          1.4890    -4.0770     2.7790 hc         0 UNK       0.048033
     47 H13         -1.3840    -2.2880     2.4760 hc         0 UNK       0.048033
     48 H14         -2.0020    -3.5270     1.3880 hc         0 UNK       0.048033
     49 H15         -1.1100    -4.0030     2.8100 hc         0 UNK       0.048033
     50 H16          3.6540     1.9010    -3.1270 ha         0 UNK       0.144000
     51 H17         -0.5880     2.8460     1.1850 ha         0 UNK       0.141000
     52 H18         -3.1740    -2.5120    -1.9910 hc         0 UNK       0.060367
     53 H19         -4.7190    -2.0100    -1.3320 hc         0 UNK       0.060367
     54 H20         -3.6430    -2.9650    -0.3230 hc         0 UNK       0.060367
     55 H21          1.2080     1.7570    -3.5870 h4         0 UNK       0.022100
     56 H22         -5.3750     2.2540     0.0800 ha         0 UNK       0.149000
     57 H23         -2.1490     4.6870     1.5050 ha         0 UNK       0.133000
     58 H24         -4.5500     4.4000     0.9530 ha         0 UNK       0.133000
     59 H25         -0.6160    -1.4970    -3.7120 ho         0 UNK       0.443000
@<TRIPOS>BOND
     1     1    10 1   
     2     1    12 1   
     3     2    16 1   
     4     2    21 1   
     5     3    28 1   
     6     3    59 1   
     7     4    28 2   
     8     5    18 ar  
     9     5    20 ar  
    10     6    13 ar  
    11     6    30 ar  
    12     7     8 ar  
    13     7     9 1   
    14     7    15 ar  
    15     8    10 1   
    16     8    18 ar  
    17     9    13 ar  
    18     9    19 ar  
    19    10    28 1   
    20    10    34 1   
    21    11    13 ar  
    22    11    14 ar  
    23    11    16 ar  
    24    12    23 1   
    25    12    24 1   
    26    12    25 1   
    27    14    17 1   
    28    14    26 ar  
    29    15    20 ar  
    30    15    27 ar  
    31    16    22 ar  
    32    17    21 1   
    33    17    35 1   
    34    17    36 1   
    35    18    29 1   
    36    19    22 ar  
    37    19    37 1   
    38    20    31 ar  
    39    21    38 1   
    40    21    39 1   
    41    22    40 1   
    42    23    41 1   
    43    23    42 1   
    44    23    43 1   
    45    24    44 1   
    46    24    45 1   
    47    24    46 1   
    48    25    47 1   
    49    25    48 1   
    50    25    49 1   
    51    26    30 ar  
    52    26    50 1   
    53    27    32 ar  
    54    27    51 1   
    55    29    52 1   
    56    29    53 1   
    57    29    54 1   
    58    30    55 1   
    59    31    33 ar  
    60    31    56 1   
    61    32    33 ar  
    62    32    57 1   
    63    33    58 1   
@<TRIPOS>SUBSTRUCTURE
     1 UNK         1 TEMP              0 ****  ****    0 ROOT