66561902
  -OEChem-03232611073D

 59 63  0     1  0  0  0  0  0999 V2000
    0.2186   -2.0280    0.4735 O   0  0  0  0  0  0  0  0  0  0  0  0
    4.1917    0.6819    1.5994 O   0  0  0  0  0  0  0  0  0  0  0  0
   -1.0259   -1.4806   -2.8209 O   0  0  0  0  0  0  0  0  0  0  0  0
    0.8718   -2.5245   -2.1546 O   0  0  0  0  0  0  0  0  0  0  0  0
   -3.9363    0.1126   -0.3629 N   0  0  0  0  0  0  0  0  0  0  0  0
    0.6730    1.1716   -1.6844 N   0  0  0  0  0  0  0  0  0  0  0  0
   -1.2302    0.3628    0.2340 C   0  0  0  0  0  0  0  0  0  0  0  0
   -1.7193   -0.8378   -0.2601 C   0  0  0  0  0  0  0  0  0  0  0  0
    0.1875    0.4580    0.5353 C   0  0  0  0  0  0  0  0  0  0  0  0
   -0.8339   -2.0194   -0.4866 C   0  0  1  0  0  0  0  0  0  0  0  0
    2.4518    0.9427   -0.0836 C   0  0  0  0  0  0  0  0  0  0  0  0
    0.1858   -3.2044    1.2680 C   0  0  0  0  0  0  0  0  0  0  0  0
    1.0919    0.8692   -0.4407 C   0  0  0  0  0  0  0  0  0  0  0  0
    3.3843    1.3238   -1.0574 C   0  0  0  0  0  0  0  0  0  0  0  0
   -2.0947    1.4478    0.4328 C   0  0  0  0  0  0  0  0  0  0  0  0
    2.8716    0.6208    1.2171 C   0  0  0  0  0  0  0  0  0  0  0  0
    4.8384    1.3397   -0.6792 C   0  0  0  0  0  0  0  0  0  0  0  0
   -3.0688   -0.9101   -0.5402 C   0  0  0  0  0  0  0  0  0  0  0  0
    0.6064    0.1148    1.8252 C   0  0  0  0  0  0  0  0  0  0  0  0
   -3.4588    1.2766    0.1167 C   0  0  0  0  0  0  0  0  0  0  0  0
    4.9486    1.6171    0.8171 C   0  0  0  0  0  0  0  0  0  0  0  0
    1.9523    0.1890    2.1675 C   0  0  0  0  0  0  0  0  0  0  0  0
    0.3411   -4.4158    0.3498 C   0  0  0  0  0  0  0  0  0  0  0  0
    1.3486   -3.1255    2.2549 C   0  0  0  0  0  0  0  0  0  0  0  0
   -1.1480   -3.2520    2.0120 C   0  0  0  0  0  0  0  0  0  0  0  0
    2.9571    1.6169   -2.3460 C   0  0  0  0  0  0  0  0  0  0  0  0
   -1.6307    2.6768    0.9315 C   0  0  0  0  0  0  0  0  0  0  0  0
   -0.2268   -2.0563   -1.8850 C   0  0  0  0  0  0  0  0  0  0  0  0
   -3.6644   -2.1713   -1.0758 C   0  0  0  0  0  0  0  0  0  0  0  0
    1.6016    1.5338   -2.6011 C   0  0  0  0  0  0  0  0  0  0  0  0
   -4.3171    2.3547    0.3143 C   0  0  0  0  0  0  0  0  0  0  0  0
   -2.5112    3.7383    1.1192 C   0  0  0  0  0  0  0  0  0  0  0  0
   -3.8560    3.5768    0.8102 C   0  0  0  0  0  0  0  0  0  0  0  0
   -1.4415   -2.9202   -0.4551 H   0  0  0  0  0  0  0  0  0  0  0  0
    5.2668    0.3588   -0.9159 H   0  0  0  0  0  0  0  0  0  0  0  0
    5.3821    2.1077   -1.2395 H   0  0  0  0  0  0  0  0  0  0  0  0
   -0.1108   -0.1901    2.5841 H   0  0  0  0  0  0  0  0  0  0  0  0
    5.9950    1.5338    1.1299 H   0  0  0  0  0  0  0  0  0  0  0  0
    4.6182    2.6351    1.0642 H   0  0  0  0  0  0  0  0  0  0  0  0
    2.2722   -0.0676    3.1730 H   0  0  0  0  0  0  0  0  0  0  0  0
   -0.5089   -4.6253   -0.3043 H   0  0  0  0  0  0  0  0  0  0  0  0
    1.2248   -4.3105   -0.2892 H   0  0  0  0  0  0  0  0  0  0  0  0
    0.4818   -5.3248    0.9477 H   0  0  0  0  0  0  0  0  0  0  0  0
    1.1752   -2.3656    3.0214 H   0  0  0  0  0  0  0  0  0  0  0  0
    2.2846   -2.8737    1.7441 H   0  0  0  0  0  0  0  0  0  0  0  0
    1.4892   -4.0772    2.7794 H   0  0  0  0  0  0  0  0  0  0  0  0
   -1.3841   -2.2884    2.4760 H   0  0  0  0  0  0  0  0  0  0  0  0
   -2.0024   -3.5274    1.3883 H   0  0  0  0  0  0  0  0  0  0  0  0
   -1.1099   -4.0032    2.8101 H   0  0  0  0  0  0  0  0  0  0  0  0
    3.6537    1.9005   -3.1266 H   0  0  0  0  0  0  0  0  0  0  0  0
   -0.5876    2.8459    1.1851 H   0  0  0  0  0  0  0  0  0  0  0  0
   -3.1744   -2.5116   -1.9909 H   0  0  0  0  0  0  0  0  0  0  0  0
   -4.7185   -2.0105   -1.3315 H   0  0  0  0  0  0  0  0  0  0  0  0
   -3.6433   -2.9649   -0.3229 H   0  0  0  0  0  0  0  0  0  0  0  0
    1.2079    1.7572   -3.5874 H   0  0  0  0  0  0  0  0  0  0  0  0
   -5.3752    2.2536    0.0797 H   0  0  0  0  0  0  0  0  0  0  0  0
   -2.1494    4.6867    1.5046 H   0  0  0  0  0  0  0  0  0  0  0  0
   -4.5501    4.3997    0.9535 H   0  0  0  0  0  0  0  0  0  0  0  0
   -0.6158   -1.4973   -3.7118 H   0  0  0  0  0  0  0  0  0  0  0  0
  1 10  1  0  0  0  0
  1 12  1  0  0  0  0
  2 16  1  0  0  0  0
  2 21  1  0  0  0  0
  3 28  1  0  0  0  0
  3 59  1  0  0  0  0
  4 28  2  0  0  0  0
  5 18  2  0  0  0  0
  5 20  1  0  0  0  0
  6 13  1  0  0  0  0
  6 30  2  0  0  0  0
  7  8  2  0  0  0  0
  7  9  1  0  0  0  0
  7 15  1  0  0  0  0
  8 10  1  0  0  0  0
  8 18  1  0  0  0  0
  9 13  2  0  0  0  0
  9 19  1  0  0  0  0
 10 28  1  0  0  0  0
 10 34  1  0  0  0  0
 11 13  1  0  0  0  0
 11 14  1  0  0  0  0
 11 16  2  0  0  0  0
 12 23  1  0  0  0  0
 12 24  1  0  0  0  0
 12 25  1  0  0  0  0
 14 17  1  0  0  0  0
 14 26  2  0  0  0  0
 15 20  1  0  0  0  0
 15 27  2  0  0  0  0
 16 22  1  0  0  0  0
 17 21  1  0  0  0  0
 17 35  1  0  0  0  0
 17 36  1  0  0  0  0
 18 29  1  0  0  0  0
 19 22  2  0  0  0  0
 19 37  1  0  0  0  0
 20 31  2  0  0  0  0
 21 38  1  0  0  0  0
 21 39  1  0  0  0  0
 22 40  1  0  0  0  0
 23 41  1  0  0  0  0
 23 42  1  0  0  0  0
 23 43  1  0  0  0  0
 24 44  1  0  0  0  0
 24 45  1  0  0  0  0
 24 46  1  0  0  0  0
 25 47  1  0  0  0  0
 25 48  1  0  0  0  0
 25 49  1  0  0  0  0
 26 30  1  0  0  0  0
 26 50  1  0  0  0  0
 27 32  1  0  0  0  0
 27 51  1  0  0  0  0
 29 52  1  0  0  0  0
 29 53  1  0  0  0  0
 29 54  1  0  0  0  0
 30 55  1  0  0  0  0
 31 33  1  0  0  0  0
 31 56  1  0  0  0  0
 32 33  2  0  0  0  0
 32 57  1  0  0  0  0
 33 58  1  0  0  0  0
M  END
> <PUBCHEM_COMPOUND_CID>
66561902

> <PUBCHEM_CONFORMER_RMSD>
0.8

> <PUBCHEM_CONFORMER_DIVERSEORDER>
1
3
2
4

> <PUBCHEM_MMFF94_PARTIAL_CHARGES>
35
1 -0.56
10 0.48
12 0.28
13 0.31
14 -0.14
16 0.08
17 0.14
18 0.17
19 -0.15
2 -0.36
20 0.31
21 0.28
22 -0.15
26 -0.15
27 -0.15
28 0.66
29 0.14
3 -0.65
30 0.16
31 -0.15
32 -0.15
33 -0.15
37 0.15
4 -0.57
40 0.15
5 -0.62
50 0.15
51 0.15
55 0.15
56 0.15
57 0.15
58 0.15
59 0.5
6 -0.62
8 -0.14

> <PUBCHEM_EFFECTIVE_ROTOR_COUNT>
5.6

> <PUBCHEM_PHARMACOPHORE_FEATURES>
13
1 1 acceptor
1 2 acceptor
1 3 acceptor
1 4 acceptor
1 5 acceptor
1 6 acceptor
3 3 4 28 anion
4 12 23 24 25 hydrophobe
6 15 20 27 31 32 33 rings
6 2 11 14 16 17 21 rings
6 5 7 8 15 18 20 rings
6 6 11 13 14 26 30 rings
6 9 11 13 16 19 22 rings

> <PUBCHEM_HEAVY_ATOM_COUNT>
33

> <PUBCHEM_ATOM_DEF_STEREO_COUNT>
1

> <PUBCHEM_ATOM_UDEF_STEREO_COUNT>
0

> <PUBCHEM_BOND_DEF_STEREO_COUNT>
0

> <PUBCHEM_BOND_UDEF_STEREO_COUNT>
0

> <PUBCHEM_ISOTOPIC_ATOM_COUNT>
0

> <PUBCHEM_COMPONENT_COUNT>
1

> <PUBCHEM_CACTVS_TAUTO_COUNT>
1

> <PUBCHEM_CONFORMER_ID>
03F7A76E00000001

> <PUBCHEM_MMFF94_ENERGY>
133.7312

> <PUBCHEM_FEATURE_SELFOVERLAP>
66.164

> <PUBCHEM_SHAPE_FINGERPRINT>
10439779 11 16393243587899033193
107951 10 18336561464130398574
11582403 64 15693439916989430296
11640471 11 18187374215783069437
12156800 1 16268784682196910534
12236239 1 18113893888053035673
12422481 6 17684339808218554018
12788726 201 17756447189148189194
13149001 5 17617925277142554951
133893 2 18048028576256967389
13965767 371 18043531599127263348
14251757 17 17060349508491963620
14713325 29 17616302273093363132
16752209 62 18339076107167625777
17980427 23 17408498673079927693
20567600 347 18342463603734916711
20600515 1 17398348363715740888
20691752 17 17895473605440544902
20739085 24 17823697452214424136
20775438 99 16108367408911063919
20905425 154 18201718414820004479
21033650 10 18198929022471521036
22121540 332 17551003231413904465
22149856 69 17271164212939216825
22907989 373 17760122834834044309
23419403 2 16903629463507750579
23559900 14 17270033892486483397
35225 105 18269538585021768780
469060 322 14637979359255113628
5265222 85 18058457663844369740

> <PUBCHEM_SHAPE_MULTIPOLES>
645.69
7.18
4.8
2.41
2.14
3.11
0.86
-6.95
-0.35
-2.85
-1.51
1.4
0.74
-1.98

> <PUBCHEM_SHAPE_SELFOVERLAP>
1457.557

> <PUBCHEM_SHAPE_VOLUME>
337.9

> <PUBCHEM_COORDINATE_TYPE>
2
5
10

$$$$
